
#======================================================================
# CRYSTAL DATA
#----------------------------------------------------------------------
data_VESTA_phase_1

_chemical_name_common                  'Primitive Cell'
_cell_length_a                         7.767015
_cell_length_b                         7.767015
_cell_length_c                         7.767015
_cell_angle_alpha                      23.458784
_cell_angle_beta                       23.458784
_cell_angle_gamma                      23.458784
_cell_volume                           65.204232
_space_group_name_H-M_alt              'P 1'
_space_group_IT_number                 1

loop_
_space_group_symop_operation_xyz
   'x, y, z'

loop_
   _atom_site_label
   _atom_site_occupancy
   _atom_site_fract_x
   _atom_site_fract_y
   _atom_site_fract_z
   _atom_site_adp_type
   _atom_site_U_iso_or_equiv
   _atom_site_type_symbol
   Cr1        1.0     0.998576     0.998576     0.998576    Uiso  ? Cr
   Ag1        1.0     0.160327     0.160327     0.160327    Uiso  ? Ag
   S1         1.0     0.270316     0.270316     0.270316    Uiso  ? S
   S2         1.0     0.730060     0.730060     0.730060    Uiso  ? S
